Version 4
SHEET 1 880 680
WIRE 560 -224 80 -224
WIRE 672 -176 672 -192
WIRE 736 -176 672 -176
WIRE 736 -160 736 -176
WIRE 400 -144 160 -144
WIRE 160 -128 160 -144
WIRE -496 -96 -496 -128
WIRE 672 -64 672 -176
WIRE 736 -64 736 -80
WIRE 640 -48 608 -48
WIRE 80 -32 80 -224
WIRE 160 -32 160 -48
WIRE 160 -32 80 -32
WIRE 256 -32 160 -32
WIRE 400 -16 400 -144
WIRE 400 -16 320 -16
WIRE 496 -16 400 -16
WIRE 560 -16 560 -224
WIRE 640 -16 560 -16
WIRE -496 0 -496 -16
WIRE -432 0 -496 0
WIRE 256 0 224 0
WIRE -496 16 -496 0
WIRE 160 16 160 -32
WIRE 400 16 400 -16
WIRE 496 16 496 -16
WIRE 736 16 736 0
WIRE -432 32 -432 0
WIRE -192 48 -192 32
WIRE -496 112 -496 96
WIRE 160 128 160 80
WIRE 224 128 224 0
WIRE 400 128 400 96
WIRE 400 128 224 128
WIRE 496 128 496 96
WIRE -192 144 -192 128
WIRE 400 160 400 128
WIRE 400 272 400 240
FLAG -432 32 0
FLAG -496 -128 Vpp
FLAG -496 112 Vmm
FLAG 288 -48 Vpp
FLAG 288 16 Vmm
FLAG 400 272 0
FLAG 160 128 0
FLAG 496 128 0
FLAG 608 -48 Vi
FLAG 672 -192 Vpp
FLAG 672 0 Vmm
FLAG 736 16 0
FLAG -192 144 0
FLAG -192 32 Vi
SYMBOL OpAmps\\opamp2 288 -80 R0
SYMATTR InstName U1
SYMATTR Value TL084
SYMBOL voltage -496 0 R0
WINDOW 0 24 96 Left 2
WINDOW 3 24 16 Left 2
WINDOW 123 0 0 Left 0
WINDOW 39 0 0 Left 0
SYMATTR InstName V2
SYMATTR Value 14
SYMBOL voltage -496 -112 R0
WINDOW 123 0 0 Left 0
WINDOW 39 0 0 Left 0
SYMATTR InstName V1
SYMATTR Value 14
SYMBOL res 384 0 R0
SYMATTR InstName R1
SYMATTR Value 10k
SYMBOL res 384 144 R0
SYMATTR InstName R2
SYMATTR Value 10k
SYMBOL res 144 -144 R0
SYMATTR InstName R0
SYMATTR Value 1k
SYMBOL cap 144 16 R0
SYMATTR InstName C0
SYMATTR Value 0.1µ
SYMBOL res 480 0 R0
SYMATTR InstName R3
SYMATTR Value 1Meg
SYMBOL Comparators\\LM311 672 -32 R0
SYMATTR InstName U2
SYMBOL res 720 -176 R0
SYMATTR InstName Rpull
SYMATTR Value 100k
SYMBOL voltage -192 32 R0
WINDOW 123 0 0 Left 0
WINDOW 39 0 0 Left 0
SYMATTR InstName V3
SYMATTR Value 0
TEXT 208 416 Left 2 !.include TL084.lib
TEXT 208 368 Left 2 !.tran 1m
